# created with PyMOL 2.3.4
@<TRIPOS>MOLECULE
1u72
33 35 1                 
SMALL
USER_CHARGES
@<TRIPOS>ATOM
1	  N1	28.763	12.969	-4.260	N.2	1	MTX188	0.000	
2	  C2	27.447	12.749	-4.477	C.2	1	MTX188	0.000	
3	 NA2	27.008	12.589	-5.695	N.pl3	1	MTX188	0.000	
4	  N3	26.550	12.642	-3.503	N.2	1	MTX188	0.000	
5	  C4	26.935	12.765	-2.256	C.2	1	MTX188	0.000	
6	 NA4	25.992	12.690	-1.383	N.pl3	1	MTX188	0.000	
7	 C4A	28.325	13.047	-1.927	C.2	1	MTX188	0.000	
8	  N5	28.752	13.214	-0.673	N.2	1	MTX188	0.000	
9	  C6	30.025	13.436	-0.474	C.2	1	MTX188	0.000	
10	  C7	30.933	13.508	-1.518	C.2	1	MTX188	0.000	
11	  N8	30.550	13.339	-2.787	N.2	1	MTX188	0.000	
12	 C8A	29.241	13.119	-2.987	C.2	1	MTX188	0.000	
13	  C9	30.421	13.599	0.993	C.3	1	MTX188	0.000	
14	 N10	31.705	14.251	1.101	N.pl3	1	MTX188	0.000	
15	  CM	32.724	13.615	1.925	C.3	1	MTX188	0.000	
16	 C11	32.139	18.304	0.049	C.2	1	MTX188	0.000	
17	 C12	30.910	17.682	-0.012	C.2	1	MTX188	0.000	
18	 C13	30.767	16.373	0.306	C.2	1	MTX188	0.000	
19	 C14	31.842	15.599	0.750	C.2	1	MTX188	0.000	
20	 C15	33.088	16.237	0.795	C.2	1	MTX188	0.000	
21	 C16	33.236	17.559	0.468	C.2	1	MTX188	0.000	
22	   C	32.279	19.746	-0.300	C.2	1	MTX188	0.000	
23	   O	33.254	20.296	0.254	O.2	1	MTX188	0.000	
24	   N	31.340	20.289	-1.069	N.pl3	1	MTX188	0.000	
25	  CA	31.237	21.612	-1.676	C.3	1	MTX188	0.000	
26	  CT	29.917	22.342	-1.518	C.2	1	MTX188	0.000	
27	  O1	30.019	23.617	-1.517	O.co2	1	MTX188	0.000	
28	  O2	28.941	21.574	-1.423	O.co2	1	MTX188	0.000	
29	  CB	31.613	21.492	-3.155	C.3	1	MTX188	0.000	
30	  CG	33.005	22.087	-3.161	C.3	1	MTX188	0.000	
31	  CD	33.683	21.657	-4.377	C.2	1	MTX188	0.000	
32	 OE1	34.726	20.885	-4.563	O.co2	1	MTX188	0.000	
33	 OE2	33.115	22.040	-5.507	O.co2	1	MTX188	0.000	
@<TRIPOS>BOND
1 1 2 ar
2 1 12 ar
3 2 3 1
4 2 4 ar
5 4 5 ar
6 5 6 1
7 5 7 ar
8 7 8 ar
9 7 12 ar
10 8 9 ar
11 9 10 ar
12 9 13 1
13 10 11 ar
14 11 12 ar
15 13 14 1
16 14 15 1
17 14 19 1
18 16 17 ar
19 16 21 ar
20 16 22 1
21 17 18 ar
22 18 19 ar
23 19 20 ar
24 20 21 ar
25 22 23 2
26 22 24 1
27 24 25 1
28 25 26 1
29 25 29 1
30 26 27 ar
31 26 28 ar
32 29 30 1
33 30 31 1
34 31 32 ar
35 31 33 ar
@<TRIPOS>SUBSTRUCTURE
1	MTX188	1	GROUP	1 A	MTX
