# created with PyMOL 2.3.4
@<TRIPOS>MOLECULE
1u72
53 55 1                 
SMALL
USER_CHARGES
@<TRIPOS>ATOM
1	 H01	26.028	12.409	-5.859	 H	1	MTX188	0.000	
2	 H02	27.648	12.645	-6.474	 H	1	MTX188	0.000	
3	 H03	26.203	12.800	-0.401	 H	1	MTX188	0.000	
4	 H04	25.041	12.521	-1.680	 H	1	MTX188	0.000	
5	 H05	31.982	13.707	-1.300	 H	1	MTX188	0.000	
6	 H06	30.487	12.612	1.452	 H	1	MTX188	0.000	
7	 H07	29.669	14.200	1.504	 H	1	MTX188	0.000	
8	 H08	33.585	14.278	2.014	 H	1	MTX188	0.000	
9	 H09	32.317	13.414	2.916	 H	1	MTX188	0.000	
10	 H10	33.034	12.678	1.462	 H	1	MTX188	0.000	
11	 H11	30.036	18.255	-0.322	 H	1	MTX188	0.000	
12	 H12	29.785	15.910	0.213	 H	1	MTX188	0.000	
13	 H13	33.965	15.665	1.099	 H	1	MTX188	0.000	
14	 H14	34.217	18.029	0.536	 H	1	MTX188	0.000	
15	 H15	30.561	19.678	-1.268	 H	1	MTX188	0.000	
16	 H16	31.930	22.242	-1.118	 H	1	MTX188	0.000	
17	 H17	30.916	21.985	-3.832	 H	1	MTX188	0.000	
18	 H18	31.622	20.452	-3.481	 H	1	MTX188	0.000	
19	 H19	33.559	21.752	-2.284	 H	1	MTX188	0.000	
20	 H20	32.941	23.175	-3.139	 H	1	MTX188	0.000	
21	  N1	28.763	12.969	-4.260	N.2	1	MTX188	0.000	
22	  C2	27.447	12.749	-4.477	C.2	1	MTX188	0.000	
23	 NA2	27.008	12.589	-5.695	N.pl3	1	MTX188	0.000	
24	  N3	26.550	12.642	-3.503	N.2	1	MTX188	0.000	
25	  C4	26.935	12.765	-2.256	C.2	1	MTX188	0.000	
26	 NA4	25.992	12.690	-1.383	N.pl3	1	MTX188	0.000	
27	 C4A	28.325	13.047	-1.927	C.2	1	MTX188	0.000	
28	  N5	28.752	13.214	-0.673	N.2	1	MTX188	0.000	
29	  C6	30.025	13.436	-0.474	C.2	1	MTX188	0.000	
30	  C7	30.933	13.508	-1.518	C.2	1	MTX188	0.000	
31	  N8	30.550	13.339	-2.787	N.2	1	MTX188	0.000	
32	 C8A	29.241	13.119	-2.987	C.2	1	MTX188	0.000	
33	  C9	30.421	13.599	0.993	C.3	1	MTX188	0.000	
34	 N10	31.705	14.251	1.101	N.pl3	1	MTX188	0.000	
35	  CM	32.724	13.615	1.925	C.3	1	MTX188	0.000	
36	 C11	32.139	18.304	0.049	C.2	1	MTX188	0.000	
37	 C12	30.910	17.682	-0.012	C.2	1	MTX188	0.000	
38	 C13	30.767	16.373	0.306	C.2	1	MTX188	0.000	
39	 C14	31.842	15.599	0.750	C.2	1	MTX188	0.000	
40	 C15	33.088	16.237	0.795	C.2	1	MTX188	0.000	
41	 C16	33.236	17.559	0.468	C.2	1	MTX188	0.000	
42	   C	32.279	19.746	-0.300	C.2	1	MTX188	0.000	
43	   O	33.254	20.296	0.254	O.2	1	MTX188	0.000	
44	   N	31.340	20.289	-1.069	N.pl3	1	MTX188	0.000	
45	  CA	31.237	21.612	-1.676	C.3	1	MTX188	0.000	
46	  CT	29.917	22.342	-1.518	C.2	1	MTX188	0.000	
47	  O1	30.019	23.617	-1.517	O.co2	1	MTX188	0.000	
48	  O2	28.941	21.574	-1.423	O.co2	1	MTX188	0.000	
49	  CB	31.613	21.492	-3.155	C.3	1	MTX188	0.000	
50	  CG	33.005	22.087	-3.161	C.3	1	MTX188	0.000	
51	  CD	33.683	21.657	-4.377	C.2	1	MTX188	0.000	
52	 OE1	34.726	20.885	-4.563	O.co2	1	MTX188	0.000	
53	 OE2	33.115	22.040	-5.507	O.co2	1	MTX188	0.000	
@<TRIPOS>BOND
1 21 22 ar
2 21 32 ar
3 22 23 1
4 22 24 ar
5 1 23 1
6 2 23 1
7 24 25 ar
8 25 26 1
9 25 27 ar
10 3 26 1
11 4 26 1
12 27 28 ar
13 27 32 ar
14 28 29 ar
15 29 30 ar
16 29 33 1
17 5 30 1
18 30 31 ar
19 31 32 ar
20 6 33 1
21 7 33 1
22 33 34 1
23 34 35 1
24 34 39 1
25 8 35 1
26 9 35 1
27 10 35 1
28 36 37 ar
29 36 41 ar
30 36 42 1
31 11 37 1
32 37 38 ar
33 12 38 1
34 38 39 ar
35 39 40 ar
36 13 40 1
37 40 41 ar
38 14 41 1
39 42 43 2
40 42 44 1
41 15 44 1
42 44 45 1
43 16 45 1
44 45 46 1
45 45 49 1
46 46 47 ar
47 46 48 ar
48 17 49 1
49 18 49 1
50 49 50 1
51 19 50 1
52 20 50 1
53 50 51 1
54 51 52 ar
55 51 53 ar
@<TRIPOS>SUBSTRUCTURE
1	MTX188	1	GROUP	1 A	MTX
