# created with PyMOL 2.3.4
@<TRIPOS>MOLECULE
1u72
48 52 1                 
SMALL
USER_CHARGES
@<TRIPOS>ATOM
1	  PA	26.918	8.702	8.609	P.3	1	NDP187	0.000	
2	 O1A	27.511	9.925	7.986	O.co2	1	NDP187	0.000	
3	 O2A	25.561	8.208	8.305	O.co2	1	NDP187	0.000	
4	 O5B	27.163	8.777	10.250	O.3	1	NDP187	0.000	
5	 C5B	26.369	7.850	11.062	C.3	1	NDP187	0.000	
6	 C4B	26.092	8.642	12.385	C.3	1	NDP187	0.000	
7	 O4B	25.124	9.363	12.154	O.3	1	NDP187	0.000	
8	 C3B	25.537	7.463	13.376	C.3	1	NDP187	0.000	
9	 O3B	26.787	7.184	14.183	O.3	1	NDP187	0.000	
10	 C2B	24.513	8.320	14.098	C.3	1	NDP187	0.000	
11	 O2B	25.036	9.265	14.974	O.3	1	NDP187	0.000	
12	 C1B	23.939	9.203	12.973	C.3	1	NDP187	0.000	
13	 N9A	22.782	8.735	12.245	N.2	1	NDP187	0.000	
14	 C8A	22.903	8.207	11.018	C.2	1	NDP187	0.000	
15	 N7A	21.755	7.891	10.535	N.2	1	NDP187	0.000	
16	 C5A	20.842	8.306	11.548	C.2	1	NDP187	0.000	
17	 C6A	19.290	8.266	11.691	C.2	1	NDP187	0.000	
18	 N6A	18.522	7.764	10.708	N.pl3	1	NDP187	0.000	
19	 N1A	18.757	8.730	12.875	N.2	1	NDP187	0.000	
20	 C2A	19.645	9.179	13.755	C.2	1	NDP187	0.000	
21	 N3A	20.966	9.267	13.708	N.2	1	NDP187	0.000	
22	 C4A	21.510	8.778	12.552	C.2	1	NDP187	0.000	
23	  O3	28.048	7.692	8.262	O.3	1	NDP187	0.000	
24	  PN	28.409	6.429	7.397	P.3	1	NDP187	0.000	
25	 O1N	27.271	5.777	6.886	O.co2	1	NDP187	0.000	
26	 O2N	29.098	5.530	8.341	O.co2	1	NDP187	0.000	
27	 O5D	29.503	6.981	6.388	O.3	1	NDP187	0.000	
28	 C5D	29.902	8.176	5.765	C.3	1	NDP187	0.000	
29	 C4D	31.205	7.715	5.126	C.3	1	NDP187	0.000	
30	 O4D	31.096	7.614	3.650	O.3	1	NDP187	0.000	
31	 C3D	32.508	8.575	5.157	C.3	1	NDP187	0.000	
32	 O3D	33.487	7.609	4.649	O.3	1	NDP187	0.000	
33	 C2D	32.088	9.693	4.141	C.3	1	NDP187	0.000	
34	 O2D	33.212	10.369	3.673	O.3	1	NDP187	0.000	
35	 C1D	31.517	8.874	3.002	C.3	1	NDP187	0.000	
36	 N1N	30.312	9.356	2.178	N.2	1	NDP187	0.000	
37	 C2N	30.255	9.163	0.766	C.2	1	NDP187	0.000	
38	 C3N	29.205	9.613	0.050	C.2	1	NDP187	0.000	
39	 C7N	29.225	9.384	-1.418	C.2	1	NDP187	0.000	
40	 O7N	28.217	9.766	-1.960	O.2	1	NDP187	0.000	
41	 N7N	30.219	8.773	-2.080	N.pl3	1	NDP187	0.000	
42	 C4N	27.960	10.251	0.684	C.2	1	NDP187	0.000	
43	 C5N	28.165	10.358	2.174	C.2	1	NDP187	0.000	
44	 C6N	29.229	9.937	2.849	C.2	1	NDP187	0.000	
45	 P2B	25.161	8.994	16.656	P.3	1	NDP187	0.000	
46	 O1X	23.775	8.644	17.073	O.co2	1	NDP187	0.000	
47	 O2X	25.423	10.392	17.047	O.co2	1	NDP187	0.000	
48	 O3X	26.120	7.902	16.628	O.co2	1	NDP187	0.000	
@<TRIPOS>BOND
1 1 2 1
2 1 3 2
3 1 4 1
4 1 23 1
5 4 5 1
6 5 6 1
7 6 7 1
8 6 8 1
9 7 12 1
10 8 9 1
11 8 10 1
12 10 11 1
13 10 12 1
14 11 45 1
15 12 13 1
16 13 14 ar
17 13 22 ar
18 14 15 ar
19 15 16 ar
20 16 17 ar
21 16 22 ar
22 17 18 1
23 17 19 ar
24 19 20 ar
25 20 21 ar
26 21 22 ar
27 23 24 1
28 24 25 1
29 24 26 2
30 24 27 1
31 27 28 1
32 28 29 1
33 29 30 1
34 29 31 1
35 30 35 1
36 31 32 1
37 31 33 1
38 33 34 1
39 33 35 1
40 35 36 1
41 36 37 ar
42 36 44 ar
43 37 38 ar
44 38 39 1
45 38 42 ar
46 39 40 2
47 39 41 1
48 42 43 ar
49 43 44 ar
50 45 46 1
51 45 47 1
52 45 48 2
@<TRIPOS>SUBSTRUCTURE
1	NDP187	1	GROUP	1 A	NDP
