# created with PyMOL 2.3.4
@<TRIPOS>MOLECULE
1u72
74 78 1                 
SMALL
USER_CHARGES
@<TRIPOS>ATOM
1	 H01	26.882	6.905	11.240	 H	1	NDP187	0.000	
2	 H02	25.436	7.596	10.559	 H	1	NDP187	0.000	
3	 H03	26.939	9.212	12.766	 H	1	NDP187	0.000	
4	 H04	25.116	6.519	13.030	 H	1	NDP187	0.000	
5	 H05	27.102	6.298	13.990	 H	1	NDP187	0.000	
6	 H06	23.856	7.653	14.656	 H	1	NDP187	0.000	
7	 H07	23.488	10.114	13.366	 H	1	NDP187	0.000	
8	 H08	23.851	8.065	10.499	 H	1	NDP187	0.000	
9	 H09	17.519	7.731	10.818	 H	1	NDP187	0.000	
10	 H10	18.949	7.420	9.860	 H	1	NDP187	0.000	
11	 H11	19.207	9.541	14.685	 H	1	NDP187	0.000	
12	 H12	29.994	9.034	6.431	 H	1	NDP187	0.000	
13	 H13	29.179	8.506	5.019	 H	1	NDP187	0.000	
14	 H14	31.312	6.829	5.752	 H	1	NDP187	0.000	
15	 H15	32.899	9.022	6.071	 H	1	NDP187	0.000	
16	 H16	33.671	7.795	3.725	 H	1	NDP187	0.000	
17	 H17	31.413	10.436	4.566	 H	1	NDP187	0.000	
18	 H18	33.436	11.077	4.281	 H	1	NDP187	0.000	
19	 H19	32.309	8.872	2.253	 H	1	NDP187	0.000	
20	 H20	31.070	8.646	0.260	 H	1	NDP187	0.000	
21	 H21	31.036	8.451	-1.580	 H	1	NDP187	0.000	
22	 H22	30.151	8.635	-3.078	 H	1	NDP187	0.000	
23	 H23	27.071	10.575	0.143	 H	1	NDP187	0.000	
24	 H24	27.366	10.824	2.751	 H	1	NDP187	0.000	
25	 H25	29.259	10.045	3.933	 H	1	NDP187	0.000	
26	 H26	23.511	9.202	17.808	 H	1	NDP187	0.000	
27	  PA	26.918	8.702	8.609	P.3	1	NDP187	0.000	
28	 O1A	27.511	9.925	7.986	O.co2	1	NDP187	0.000	
29	 O2A	25.561	8.208	8.305	O.co2	1	NDP187	0.000	
30	 O5B	27.163	8.777	10.250	O.3	1	NDP187	0.000	
31	 C5B	26.369	7.850	11.062	C.3	1	NDP187	0.000	
32	 C4B	26.092	8.642	12.385	C.3	1	NDP187	0.000	
33	 O4B	25.124	9.363	12.154	O.3	1	NDP187	0.000	
34	 C3B	25.537	7.463	13.376	C.3	1	NDP187	0.000	
35	 O3B	26.787	7.184	14.183	O.3	1	NDP187	0.000	
36	 C2B	24.513	8.320	14.098	C.3	1	NDP187	0.000	
37	 O2B	25.036	9.265	14.974	O.3	1	NDP187	0.000	
38	 C1B	23.939	9.203	12.973	C.3	1	NDP187	0.000	
39	 N9A	22.782	8.735	12.245	N.2	1	NDP187	0.000	
40	 C8A	22.903	8.207	11.018	C.2	1	NDP187	0.000	
41	 N7A	21.755	7.891	10.535	N.2	1	NDP187	0.000	
42	 C5A	20.842	8.306	11.548	C.2	1	NDP187	0.000	
43	 C6A	19.290	8.266	11.691	C.2	1	NDP187	0.000	
44	 N6A	18.522	7.764	10.708	N.pl3	1	NDP187	0.000	
45	 N1A	18.757	8.730	12.875	N.2	1	NDP187	0.000	
46	 C2A	19.645	9.179	13.755	C.2	1	NDP187	0.000	
47	 N3A	20.966	9.267	13.708	N.2	1	NDP187	0.000	
48	 C4A	21.510	8.778	12.552	C.2	1	NDP187	0.000	
49	  O3	28.048	7.692	8.262	O.3	1	NDP187	0.000	
50	  PN	28.409	6.429	7.397	P.3	1	NDP187	0.000	
51	 O1N	27.271	5.777	6.886	O.co2	1	NDP187	0.000	
52	 O2N	29.098	5.530	8.341	O.co2	1	NDP187	0.000	
53	 O5D	29.503	6.981	6.388	O.3	1	NDP187	0.000	
54	 C5D	29.902	8.176	5.765	C.3	1	NDP187	0.000	
55	 C4D	31.205	7.715	5.126	C.3	1	NDP187	0.000	
56	 O4D	31.096	7.614	3.650	O.3	1	NDP187	0.000	
57	 C3D	32.508	8.575	5.157	C.3	1	NDP187	0.000	
58	 O3D	33.487	7.609	4.649	O.3	1	NDP187	0.000	
59	 C2D	32.088	9.693	4.141	C.3	1	NDP187	0.000	
60	 O2D	33.212	10.369	3.673	O.3	1	NDP187	0.000	
61	 C1D	31.517	8.874	3.002	C.3	1	NDP187	0.000	
62	 N1N	30.312	9.356	2.178	N.2	1	NDP187	0.000	
63	 C2N	30.255	9.163	0.766	C.2	1	NDP187	0.000	
64	 C3N	29.205	9.613	0.050	C.2	1	NDP187	0.000	
65	 C7N	29.225	9.384	-1.418	C.2	1	NDP187	0.000	
66	 O7N	28.217	9.766	-1.960	O.2	1	NDP187	0.000	
67	 N7N	30.219	8.773	-2.080	N.pl3	1	NDP187	0.000	
68	 C4N	27.960	10.251	0.684	C.2	1	NDP187	0.000	
69	 C5N	28.165	10.358	2.174	C.2	1	NDP187	0.000	
70	 C6N	29.229	9.937	2.849	C.2	1	NDP187	0.000	
71	 P2B	25.161	8.994	16.656	P.3	1	NDP187	0.000	
72	 O1X	23.775	8.644	17.073	O.3	1	NDP187	0.000	
73	 O2X	25.423	10.392	17.047	O.co2	1	NDP187	0.000	
74	 O3X	26.120	7.902	16.628	O.co2	1	NDP187	0.000	
@<TRIPOS>BOND
1 27 28 1
2 27 29 2
3 27 30 1
4 27 49 1
5 30 31 1
6 1 31 1
7 2 31 1
8 31 32 1
9 3 32 1
10 32 33 1
11 32 34 1
12 33 38 1
13 4 34 1
14 34 35 1
15 34 36 1
16 5 35 1
17 6 36 1
18 36 37 1
19 36 38 1
20 37 71 1
21 7 38 1
22 38 39 1
23 39 40 ar
24 39 48 ar
25 8 40 1
26 40 41 ar
27 41 42 ar
28 42 43 ar
29 42 48 ar
30 43 44 1
31 43 45 ar
32 9 44 1
33 10 44 1
34 45 46 ar
35 11 46 1
36 46 47 ar
37 47 48 ar
38 49 50 1
39 50 51 1
40 50 52 2
41 50 53 1
42 53 54 1
43 12 54 1
44 13 54 1
45 54 55 1
46 14 55 1
47 55 56 1
48 55 57 1
49 56 61 1
50 15 57 1
51 57 58 1
52 57 59 1
53 16 58 1
54 17 59 1
55 59 60 1
56 59 61 1
57 18 60 1
58 19 61 1
59 61 62 1
60 62 63 ar
61 62 70 ar
62 20 63 1
63 63 64 ar
64 64 65 1
65 64 68 ar
66 65 66 2
67 65 67 1
68 21 67 1
69 22 67 1
70 23 68 1
71 68 69 ar
72 24 69 1
73 69 70 ar
74 25 70 1
75 71 72 1
76 71 73 1
77 71 74 2
78 26 72 1
@<TRIPOS>SUBSTRUCTURE
1	NDP187	1	GROUP	1 A	NDP
